Replan_api_v1/api/files/ojo_caliente/XfmrCode.dss
new xfmrcode.2000-kva-3ph-ug phases=3 windings=2 %r=0.4961389383568338 xhl=3.9691115068546705 kvas=[2000.0 2000.0] %noloadloss=0.060000002384186 
new xfmrcode.750-kva-3ph-ug phases=3 windings=2 %r=0.558156305651438 xhl=4.465250445211504 kvas=[750.0 750.0] %noloadloss=1.0 
new xfmrcode.75-kva-1ph phases=1 windings=2 %r=0.7969395838822423 xhl=1.8114436756843795 kvas=[75.0 75.0] %noloadloss=0.202666660149892 
new xfmrcode.5-kva-1-ph phases=1 windings=2 %r=0.4902903378454601 xhl=2.4514516892273006 kvas=[5.0 5.0] %noloadloss=0.399999991059304 
new xfmrcode.7-5-kva-1ph phases=1 windings=2 %r=0.49561395034131733 xhl=3.71710462755988 kvas=[7.5 7.5] %noloadloss=0.0 
new xfmrcode.150-kva-3ph-ug phases=3 windings=2 %r=1.1354879492608076 xhl=4.5112936787232405 kvas=[150.0 150.0] %noloadloss=0.20733332633972198 
new xfmrcode.112-kva-3ph-ug phases=3 windings=2 %r=0.9120248212666631 xhl=3.2878494980618167 kvas=[112.5 112.5] %noloadloss=0.0 
new xfmrcode.225-kva-3ph-ug phases=3 windings=2 %r=1.0206212265630634 xhl=1.393147983991981 kvas=[225.0 225.0] %noloadloss=0.1800000005298191 
new xfmrcode.0-kva-3ph-ug phases=3 windings=2 %r=0.7071067811865476 xhl=0.7071067811865475 kvas=[1.0 1.0] %noloadloss=100.0 
new xfmrcode.10-kva-1ph phases=1 windings=2 %r=1.5126218095706694 xhl=1.1011886550079444 kvas=[10.0 10.0] %noloadloss=0.329999998211861 
new xfmrcode.112-kva-1ph-ug phases=1 windings=2 %r=0.9120248212666631 xhl=3.2878494980618167 kvas=[112.5 112.5] %noloadloss=0.2088888883590702 
new xfmrcode.25-kva-1ph phases=1 windings=2 %r=0.9437101586789957 xhl=1.4570885129001219 kvas=[25.0 25.0] %noloadloss=0.248400002717972 
new xfmrcode.100-kva-1ph phases=1 windings=2 %r=1.1242093550683459 xhl=2.9072053536100717 kvas=[100.0 100.0] %noloadloss=0.21999999880790697 
new xfmrcode.500-kva-3ph-ug phases=3 windings=2 %r=0.825945170874426 xhl=2.1829729936745492 kvas=[500.0 500.0] %noloadloss=0.1611999988555908 
new xfmrcode.0-kva-1ph-ug phases=1 windings=2 %r=1.4142135623730951 xhl=1.414213562373095 kvas=[1.0 1.0] %noloadloss=10.0000001490116 
new xfmrcode.1500-kva-3ph-ug phases=3 windings=2 %r=0.5891649892987402 xhl=4.713319914389921 kvas=[1500.0 1500.0] %noloadloss=1.0 
new xfmrcode.3-kva-1ph phases=1 windings=2 %r=0.4743416490252569 xhl=1.4230249470757708 kvas=[3.0 3.0] %noloadloss=0.49999998882413 
new xfmrcode.37-5-kva-1ph phases=1 windings=2 %r=0.9406852259824328 xhl=1.6057496968999467 kvas=[37.5 37.5] %noloadloss=0.22666666905085253 
new xfmrcode.1000-kva-3ph-ug phases=3 windings=2 %r=0.7045172711747304 xhl=5.636138169397843 kvas=[1000.0 1000.0] %noloadloss=0.12269999980926499 
new xfmrcode.167-kva-1ph phases=1 windings=2 %r=1.1488274234058053 xhl=1.7002646085527406 kvas=[167.5 167.5] %noloadloss=0.1922388041197361 
new xfmrcode.50-kva-1ph phases=1 windings=2 %r=0.9188309196584509 xhl=1.5022885448789156 kvas=[50.0 50.0] %noloadloss=0.22200000286102198 
new xfmrcode.75-kva-3ph-ug phases=3 windings=2 %r=1.1063348572774812 xhl=2.8454932824600085 kvas=[75.0 75.0] %noloadloss=0.2906666596730547 
new xfmrcode.15-kva-1ph phases=1 windings=2 %r=1.400133169310684 xhl=1.4393368940455742 kvas=[15.0 15.0] %noloadloss=0.3000000119209287 
new xfmrcode.1-5-kva-1ph phases=1 windings=2 %r=0.4472135954999579 xhl=0.8944271909999159 kvas=[1.5 1.5] %noloadloss=0.6666666517655053 
new xfmrcode.300-kva-3ph-ug phases=3 windings=2 %r=0.646145477176661 xhl=1.3381673473189495 kvas=[300.0 300.0] %noloadloss=0.1796666582425437 
